<?xml version="1.0" encoding="utf-8"?>
<net.dhleong.opengps.feat.routes.PreferredRoutesView
    xmlns:android="http://schemas.android.com/apk/res/android"
    android:layout_width="match_parent"
    android:layout_height="match_parent">

    <android.support.v7.widget.RecyclerView
        android:id="@+id/recycler"
        android:layout_width="match_parent"
        android:layout_height="match_parent"
        />

</net.dhleong.opengps.feat.routes.PreferredRoutesView>